20
E = -1762.1527597266227
C 0 0 0
C 0.11652870131420763 -1.615511906917292 3.338238359711439
C 0.8862999162558233 1.3507240513037837 1.1162070089842382
C -1.642732036123492 -0.9745191447345859 -1.448368459638653
C -0.08918251350084955 1.8929717133638992 -0.5199126792789595
C -0.15816498993930786 0.32459210427644475 -1.8939244226259149
C 0.9305258634296302 0.0034847002987194106 2.5414343162858675
C -0.012308146916627417 -1.5999044736819552 -2.399301939318441
C 1.50454345637254 -2.2961264664990177 0.32584832324276336
C -0.2713188740440924 -1.9103505635067193 -0.45101352496628017
C 1.7573328441399028 -0.3997460149018782 0.7833868187747732
C 0.09109533312785804 -1.3686460188158602 1.379959243937356
C -1.1232209568809177 1.160070786297988 1.0837002920424967
C -0.20830468264298146 1.616424456759927 2.759369817125138
C -0.2844510289824931 2.937875695925749 1.2094594311902145
C -1.6659025647169734 -0.7547794941693518 0.5887179233862081
C -1.0449598971827705 -0.21023051563298017 2.472052169486809
C 1.8137195205810022 -1.763283992935359 2.246423521846683
C 1.3209280138442097 -0.8934718752018287 -1.1123088069748899
C -1.7240979955745337 0.81725117644552 -0.7295403062305595
20
E = -1820.347769627341
C 0 0 0
C 1.0678563195715727 0.05758311042138502 -1.6082621415366183
C 0.5474986346889933 -1.6945954074119143 -0.734987682851004
C 1.8672315575831135 -0.46119294347373524 0.2167589464166874
C 0.8835609742500512 2.663701965051618 1.3969347087581345
C -1.8947005016685592 0.3591608847294414 -0.13499323354566956
C 2.387525961230389 -1.4225465138720985 -1.4451775599949641
C -0.8975482147063746 -0.5028225741288443 -1.6328764209980493
C 0.4423631329176828 -1.361731342913674 1.2976099079810695
C -1.0590497329838133 -0.046083270599796965 1.6259510368342507
C 0.3923737175373038 3.0916060493245596 -0.47898733174228136
C -1.4170577027475044 3.1210055386909636 -1.2074975180849807
C -0.6209593956625717 1.6883298052717122 0.651315650438266
C -2.4655570207386956 2.212619025223969 0.166602910616051
C 1.3076535372968154 1.417077496936359 -0.13567598950593346
C -1.078652039637782 3.5814441615654498 0.7392083721624609
C 0.8330443619326111 0.6381851208034308 1.629198275399855
C -2.298984722063271 1.4120872164922167 -1.7250498743664584
C -0.3819026658268568 1.4149999647869727 -1.2735730214314165
C -1.2310236246563704 -1.489131591609955 0.16809338183136802
20
E = -1738.3332944180524
C 0 0 0
C -1.5476660538038092 -0.24007784065497764 -1.1430326625625102
C 2.8374227516779493 0.8312168513407355 2.4236541692651485
C -1.7430227585711844 -2.078724543273945 1.5534069361654606
C 2.6337942648041355 1.646045343385025 0.5331254209503683
C -2.683852873853131 -1.6007404929429834 -0.1842340493845175
C -0.050298783456263235 1.083862625077184 -1.6116042086738072
C -0.33969461713629995 0.9898561265785343 1.6389540745715276
C 0.9278176395724165 0.2902729096344545 3.0044490855155246
C -1.2835199601013294 1.4693830455833108 -0.08427708699508346
C -1.7215396229538529 -0.23598261255298683 0.8603207472808473
C 1.497129503971425 0.18909321797463643 1.1465042441570226
C -0.7122761428079881 -1.7729341526846774 -0.11117557699008819
C 0.294803251638873 -0.8969083545416272 -1.6837002592464985
C 0.683595558667132 1.8170714490149484 0.1350983390550003
C 1.3100513496642914 2.0007265107687124 2.0036797838361053
C -0.057646550102934395 -0.9796814090766219 1.6946254201086897
C -2.2572129246005423 1.5044035520845425 1.6536530715494953
C -1.847607090064173 -3.396043665833338 0.056867497487642964
C 1.7061478548851448 0.4228155891901583 -0.8462754366104746
20
E = -1698.3345471931889
C 0 0 0
C 1.4588869088659873 -0.6102935003320817 2.85033603495834
C -0.14563637094447843 -0.8881405178689522 1.7192887213311983
C -0.14399243813058604 0.8085000297719948 -1.7597483159579095
C -1.5602277352823535 -2.2920331214887835 1.5746854110971447
C -1.9633376068773338 1.3892472553019624 3.1289192636590784
C -1.8707425845313335 -0.520573019619139 2.5650535574127127
C 0.5700219401655612 -1.0823853737054092 -1.554304736295319
C -1.6260661049057576 1.0581362448759044 -0.44854228067908325
C 0.07668510602998072 1.9387031418355736 0.10150723176855618
C -0.3376462409473511 -1.914091105143694 0.03566891718977473
C -0.9209710893259563 2.6162662591802675 -1.4781691052459585
C 0.9364098774708587 0.8044348953042878 1.5468290091851669
C -0.7903680941693721 -2.5590624178784456 -1.777623717256835
C -1.7990188930151754 -0.6233372259632719 0.5922459320408057
C -0.20393057815307816 0.4465235352122126 3.1764967393351093
C -1.3493092263424715 -0.7237918086729378 -1.2994823925308732
C -2.218250256528184 -2.2962252990927055 -0.3721595504947071
C -1.0193301079286845 0.9403476449722012 1.444257158838233
C 1.0698243530739073 2.363725203656145 -1.5609976697638934
20
E = -1790.7281388703668
C 0 0 0
C 0.3284085491990561 -0.19367277393185578 1.9365387725932548
C 2.6665621574615326 1.3768573383330838 1.6794558873379597
C -1.4449822748158383 1.7933877402985263 -1.5879620474967788
C 1.1503915150443875 1.2911495413383611 2.9554151991985655
C -1.5340843007532459 -0.04817771054321732 1.2774495816257314
C 0.6999505619011903 -1.723743445664146 0.7396744354504327
C -1.1667520898205506 -1.6017221128438692 0.0952280874067474
C 0.44130151894722114 1.6876462937997676 -0.9422114316192537
C -1.0587771341307362 1.6313867081070246 0.3468928136308787
C 2.309058816627048 1.5727168399634166 -0.27150677901980014
C 1.8626597250527759 -0.1276259525177376 0.6709740188861802
C 0.3513985332220725 -1.5420467796717805 -1.1986542165671863
C -0.7238061645261874 1.4575661029203215 2.2919074889617006
C -0.34734380163707684 0.16738398340882263 -1.9454423707273107
C -1.5144711559644677 -1.4445871362651856 -1.863900090496062
C -1.8562932604115159 0.09266538844302694 -0.6669925080773847
C -2.942955167938291 1.6845298630475396 -0.2355686726794764
C 1.5233196512566054 0.04975486481241376 -1.2708560729481448
C 0.7944749544663346 1.5093274047039016 1.0081617018148166
20
E = -1797.157499514964
C 0 0 0
C -1.788766533485494 0.6271202468437682 -0.36134633519256537
C 0.2737899930894233 -1.8938997897713667 -0.21075805383574817
C 2.0765491141456804 -2.1120794078362004 -0.9236434999681704
C -0.9009655346915775 -0.8707136039281377 -1.4718457873532957
C 2.169001387715953 -1.508123503478038 -2.821411962588261
C 1.43109210210188 1.2248799822808025 -0.46731806214426697
C 1.8098623852813973 -0.5788585244158034 0.302674562145446
C 1.0153749347940564 -2.2709711653313716 2.9589062593453566
C -1.0589455810813735 0.4889933720894529 1.541957215602501
C 1.0733484819040986 -0.47036136964045455 -1.5331593966182422
C 0.43901228258211067 -2.2367575867647322 -2.1394170751053747
C -1.4675067227060696 -1.1798562077019712 0.4658917808056506
C 0.9523330613820594 0.8077309450309313 1.4778877282667326
C -2.0076948544060307 0.5333163294944493 -2.338300996849123
C -0.3240458053246078 1.8837415413876688 0.2744444992791318
C -0.23949270929441152 1.0626362883804141 -1.5949436196896118
C 1.6956220843376266 -2.3612620432964535 1.0873893624475546
C 2.0498610325478377 -0.7172006462116514 2.2483024244827545
C 0.22533822752680707 -1.0720672373725586 1.5892237429526364
20
E = -1881.8261272971763
C 0 0 0
C 1.2879469088017412 -0.7710457903379082 1.2127106394820129
C 0.09226361818885036 -0.4664853479752925 -1.8645604999503953
C -0.34765548492070186 -2.370057563702443 -2.0240282157553717
C -0.1460985514028107 1.1803041470189906 -2.9279373687353707
C -0.12917528491318125 0.5614814956675558 1.8313120561104341
C 2.6149293900953663 1.4745706906825153 -1.1232767177094234
C 1.7902652868161861 -0.29095632446888775 -0.6956293036878604
C -0.4978708402583647 1.8605223087776173 0.29536437123169135
C 1.4354447924420402 2.375768856356217 -2.5942033533616415
C 1.7193921770052 0.36966778729140776 -2.573852432808901
C 1.5888643374356546 -1.6815935684129941 -2.09244401306215
C -0.6760185038626443 -1.326285455103409 1.2131451165851326
C 0.5455599817847867 -1.814333332497573 -0.35984485509386926
C 1.429103216572778 1.1697739033745265 0.6398120776670302
C -1.359215833986783 -1.1787126283574287 -0.7058863811772305
C 0.6931857167391634 1.303655055572433 -1.1735540295684939
C -1.7823265035196394 0.3039847152007194 0.6493861543685165
C -0.57731524888457 2.675022958508162 -1.6420136037764148
C -1.2618826332108186 0.8252435561682644 -1.247024030312707
20
E = -1814.1369342969347
C 0 0 0
C -3.0286358453715803 -0.8214150815169016 0.8391783824404107
C 0.23988670855402952 -1.9791538872145293 -2.6273397152654843
C 0.9851621508654232 -0.2138359227635519 -1.6968146375491688
C 0.45420354156642734 -3.616337992197877 -1.2794644512945628
C -0.5709267176785504 -3.151363415912058 0.39744232253427403
C -1.3637967859065578 -1.4127058671739972 0.05999522772471369
C 1.7877881339328903 -0.8558783454079977 0.18959963281508488
C -1.282983542742352 -2.616457412543657 -1.4688353693099483
C -0.8028232666094931 1.6915554643973827 0.5741824782502827
C -1.2752066269379472 -0.07660418175674301 1.4919780545833494
C -2.80876805085144 -1.216794719372438 -1.2082783736570053
C -2.054320100298612 2.310268466017951 -0.8544562780060693
C 0.19556265930848235 -1.505109253950164 1.2612352301317429
C -1.9567415136371396 0.39298900401589376 -0.3545796307528935
C -0.9473400767064504 -0.6527729809620444 -1.7030539984893152
C -0.4605129849084044 1.2510302013972923 -1.411787285062513
C -1.6457402087352453 -2.0364772673037725 1.8608770160972437
C 0.3486946832506181 -1.776466808170001 -0.7129225607633487
C 1.4176560243185026 -2.889334987179873 0.45078220601262814
20
E = -1749.5314061858878
C 0 0 0
C -1.1842752767390698 2.4847037667664957 1.487177100061683
C 0.6405858122643511 0.929398324843358 -1.592555304470708
C -2.228681183746633 2.18477452059466 -0.2428285857558965
C -1.3490814136819258 0.6381852046231922 -1.2347170667538605
C 1.5189818986134744 1.2179295777110588 0.21029773578014743
C 2.3976387256431937 0.38964225035044353 -2.331151124056946
C 1.6992591327454176 -0.5643277118071304 -0.7488845887212724
C 3.247811308849994 0.6375499865687286 -0.5374752187779871
C 1.445379930947584 -0.46204920581178577 1.2316832282938084
C 2.2022970912503936 2.136395493131239 -1.3838076709909155
C 0.8119560225691185 2.8226398605002165 1.2012279455867534
C -0.03511330208440125 -0.9412268683975834 -1.695107972980464
C 1.0133981463934607 -2.2564543975793354 1.9288317550785987
C 0.4334466758521322 -1.8758725764558546 0.07669440380417875
C -1.6131332298123273 0.6450104577723588 0.8277035850040179
C 2.379253306536459 -2.012827167377294 0.4483521186392965
C -0.2843189613893151 1.9165093267000874 -0.15422054371294336
C 0.15556726531180312 1.0144529334927659 1.6578388446921664
C -0.462919667048759 -0.9044396704053574 1.650595916887045
20
E = -1694.505708408551
C 0 0 0
C 0.7893331176569232 -0.959941504148735 -1.533393225503067
C 1.4082301816712701 2.4361729758913944 -2.040980056161032
C 1.2177072279983046 1.5164284179394065 -0.28451179094837875
C -1.155127603885236 -0.5313716223986554 -1.6386180097056127
C -1.1599653319696477 0.9800135088669203 1.2570012465309073
C 2.0899497113920993 0.5649276061751408 -1.8768984442857344
C 0.03297443303122269 -2.685634012762664 1.3668212299323454
C 2.002270307684016 -0.292586087473934 -0.12200007415030395
C 0.16105531511774396 0.9009097628327966 -1.8304695138268892
C 2.880880718604932 -1.6173473528366564 1.0927612718719002
C -2.3534453176577883 -2.033900200946835 -1.0494758348117423
C -0.5445535943318572 -1.81883029854299 -0.2836908066066479
C -2.0027307377514627 -0.47574569476818296 0.12478375173343485
C -1.4019922037166792 1.2299430173242192 -0.6939790938013983
C 1.365043727461197 -2.1800899175581283 -0.06437778463646165
C -1.9896883216434134 -2.3856365726851267 0.9011350103651117
C 1.0489790092523268 -0.942123881409034 1.4423758432163283
C 0.22735608656963832 -1.7024742243184772 3.0869481524211833
C -0.8671542487843067 -0.9407583336216668 1.6096541759231067
