5
E = -227.5918565773855
C 0 0 0
C 1.5163348997054735 0.6162586870753801 1.152369324738631
C 0.7857407940819015 -1.2351982100788916 1.3652465507712126
C 1.830589443342031 -0.7531057252114777 -0.2674073369314939
C -0.2958938755804397 0.34049094994787893 1.9458445791990335
5
E = -227.59190507578006
C 0 0 0
C 1.671789461524477 0.8317633997819209 -0.7092121119293142
C -1.3322312410095414 1.4335297484391547 0.3998056495429629
C 0.6132724846350456 1.7724377010651835 0.6994386415560816
C -0.10393731936008739 1.6254875745935795 -1.1635463619278834
5
E = -227.59162754284884
C 0 0 0
C -1.652624344006115 -0.6903663153085762 -0.8939890785852863
C -0.5652348780354922 0.7396450091249556 -1.7672929022107893
C -0.4368131041285364 -1.9478423011749442 0.07066888205552774
C 0.1495184191603768 -1.1219705591602154 -1.6510044370181587
5
E = -227.59189520796758
C 0 0 0
C -0.9279179714679736 1.464203982366611 1.000962324361069
C 0.7367290039738156 1.8608270005271017 -0.03746848482199102
C -0.9639678897185131 1.438244192987305 -0.9959503033063267
C 0.8365081645046846 0.7784503211459359 1.6382816137498537
5
E = -227.59166603732663
C 0 0 0
C 1.7511716224626308 -0.9281701896613213 -0.2810026074682709
C 0.8273218200979069 -0.047383080668778596 -1.8174651079271515
C 0.38620894344333034 -1.7162896870840079 0.9460857946771501
C 0.06915797816265488 -1.7173875839121924 -1.026090385092366
