10
E = -590.803505977294
C 0 0 0
C 0.2028657728265449 1.7517165358441509 -0.9121099481798423
C 1.5623475902176363 0.2970444762882383 -1.1546386059609108
C -1.1177768531631975 -1.6369829382700878 -0.11594003322811855
C 1.5489948553164619 -0.6487307546805566 1.022525503640623
C 0.6926141420006549 -2.2767283570846337 0.3196319213394484
C 0.40764382282874717 -1.3221887796923222 -1.4021610699229163
C 2.245764376452727 -1.4846700122319527 -0.638067913749189
C 1.441288653504284 1.2760378706733477 0.5741016567823952
C -1.885615383011964 -0.47979351116707014 1.3116806375561945
10
E = -482.45344798135
C 0 0 0
C 0.01890904244317562 -1.8275831377324818 -0.6563739602247423
C 0.6335649487775541 -1.335866341768602 1.269269680298871
C -0.27786168165683245 1.645824744235756 -1.0055210659648426
C 0.5215219447630811 -0.04116443007317726 -1.87441369437341
C -1.4308841330737496 0.9528827293673143 0.9338107483146089
C 0.3531140285825151 0.6222495832325449 1.8275173064994505
C 0.12132929100432369 -3.1972309046077663 0.7928591688208227
C 0.12203005270323095 -1.8365615590831812 -2.6455288449618357
C 1.9257186422331583 -1.449274755008966 -1.8699819580317505
