70
E = -437.45158137926563
C 0 0 0
C -22.538673447811583 17.489069208124008 16.19806903664555
C 31.05526927452736 -15.716396559750034 -25.64632165079258
C 9.311077013534891 11.991580351844874 33.53792921141566
C -11.598046961534768 17.73232195041044 -2.8788715834353558
C -13.095942809509562 18.908870095572777 -3.4904314598200283
C 23.567592919913842 25.223902674323526 -1.865004264003204
C 1.555157138205748 0.9243797606374591 -0.8523099676463202
C -30.434634853257137 33.63656927385464 24.818053298873775
C -29.83393831453742 33.35523370754019 26.70420439315708
C -13.848163251319178 -22.330275853146123 -11.593873124861064
C -4.289236276883783 15.989715350464168 -3.484785237346778
C 15.391700781392004 -13.719863125323045 -0.5325044729854582
C -15.462594395140796 -5.7518426573422055 -30.970912492246406
C 9.801547512600237 23.50645311373514 -29.11375803845248
C 19.80904693621923 -27.37875693416151 9.154468618212476
C 2.361562462597976 6.888972555339108 -30.757139752933604
C -2.529636169956374 10.211412990247256 -25.067522952689906
C -9.218451186729245 27.917819645771093 23.183561268366176
C -20.475049798346568 -0.20482517060218255 -29.249938922917586
C -11.235021676284244 -7.027961790499891 -13.452016679525101
C -4.3414659683564985 32.16374400060559 2.482219095938362
C 32.460575655888945 27.50866879428768 -12.975726919415074
C -20.668805050580126 1.7475684294391602 -29.638084543932177
C 32.74193515095918 29.848199795873256 8.25892013502871
C -27.479002439887818 -27.26982028558151 -4.414643667029556
C -14.482514702293901 -30.000172985473256 24.42468570510988
C 21.118210013680354 -28.106251721516163 10.480656215657381
C -23.891330050580965 -10.82286173373041 20.622694823765045
C 23.225578599875988 -17.35510717474138 -10.455122703017544
C -26.920951726478386 34.431813506097214 -4.693364457271226
C 16.01302662275325 7.535356542532128 -17.916163181419137
C -8.751014303887501 26.162725000300874 24.02258076730082
C -13.523678130579121 -20.509524130487375 -12.35452616342628
C -15.081400978166553 -6.513440727444259 -19.485316297198235
C 12.30213282373618 29.117640284956977 12.292262163166967
C 12.722728077327105 -31.65259125061929 -32.98200869023374
C 7.205760098742566 25.432610441796584 1.1862473514204055
C 33.50637860653208 19.216137690331216 17.45904458675156
C -21.35538442421086 0.9978904219791135 -27.918243818866973
C -34.15578347529979 21.186760346508567 -23.5558089522791
C 10.96051666371735 -25.526118545315693 -22.355113430575052
C 0.25543213636319706 -15.71975985158365 -4.343250653694518
C -16.185344444146796 -21.39827105643252 -7.758718194256444
C 22.851966473593137 3.3885046247770987 25.66601748599866
C 17.99729946315422 -0.2765386949693891 7.661853904969313
C -29.96304655722278 -33.87725822405606 11.228906933624785
C -14.622651485604528 4.7437604526850565 -17.77962338032499
C -29.408178614307907 -6.47395443166134 6.255208713731878
C 13.663219131790507 -8.593799613474992 -17.182790077341707
C 0.6525920639072496 10.671544038164043 23.129301495701093
C -34.679208358231215 -3.1012087892733717 16.867200479321433
C -34.63951734064769 -21.32231404116074 -33.041988687683876
C -33.03923498630762 11.934872599785628 -21.04019655308755
C -18.757870809554348 1.4826580387521304 -30.15528855349602
C 1.6882221756890061 -14.244179031495143 22.355482921115758
C -22.68828895045961 -23.087287749594243 2.7115726734836936
C -26.85989357058932 3.5852681581373744 1.4857453414729613
C 23.176222395757172 19.48510019882304 -24.675609999197547
C -28.705211219106012 -27.645313275006682 -5.949509838232254
C 13.263973611444404 -6.974816144679949 -18.285936152790953
C -27.072761534537445 1.8403812964553417 2.4389243727995997
C 29.8039663538852 -6.640320833746337 3.7419796122612468
C -3.721001382392341 -24.13623527067252 9.303130885565778
C -1.6042181730265237 11.439641250504652 -23.788473150333942
C 33.91688061274546 -0.8526708810021191 -27.894454014277372
C -13.784925853432547 -6.863982784462073 -18.003684572511848
C -16.48182617364989 4.528395372551775 -18.48370439342258
C -33.687462780238654 13.62039233838821 -20.18162530479475
C 24.09821892566776 7.403112311623225 -4.299763869440078
70
E = -468.53972162105316
C 0 0 0
C -5.283031459514052 -15.349696046348983 31.230866540430313
C 22.05489944336502 23.740748027119132 -20.61669651890586
C 31.177580692704623 11.477160279781655 -30.24047113795575
C -3.8777265147141913 -27.139756346709014 -29.32947579116821
C -4.7067745581804274 12.64368516563397 17.150119056337985
C 10.472506055375739 14.714098104624732 34.05674822016971
C 15.24780189155706 12.792593829401463 -6.299026858200996
C 9.61921533070981 -17.20411341833896 -21.35884243656526
C 10.92905778542049 -17.046655309763597 -22.861483202849215
C -21.50595875561906 2.933336793293762 16.246532182048
C 15.869511449049458 27.42307386038264 0.2388643620663092
C -8.163786996524294 -31.450445974844605 -1.8274260774315323
C -21.526930009063893 -28.633613273380988 22.006434200492386
C 6.614759033540117 -22.556109577640512 -23.72717215577116
C -1.9426183885762158 -19.836181074043218 -23.807881127530976
C 22.392349693036365 22.269206680210644 -21.928804993663178
C 17.62110699828447 -5.813055519509151 -1.6286921792775029
C -9.272608614308318 29.647646245276082 -3.4347131540970044
C -29.160107411835465 9.225962955909473 33.973019369344
C 14.51910854928013 -20.691983359385787 28.08735156631306
C 9.982344050592282 32.492594155427426 -11.818766337006696
C 20.755284895242685 11.96612939125353 -2.4621080102533908
C 11.444769251324177 -7.55081677580108 -4.625052877056632
C 32.37109249513408 -5.376849118499859 -12.813793517288648
C -24.422046390439334 15.804396423783022 -5.907204161365048
C -29.070220203612916 -28.759557987358306 -7.887038318001612
C 25.590452020027406 7.668605163391256 -2.3373373729047633
C -5.834412007549532 -16.636108947336403 32.65907041616752
C -31.51480175619258 28.949453046139197 -15.807532112115167
C -6.533744662668947 13.444948628211481 17.281796952837528
C -1.1799061062184912 -18.088122422071947 -23.204356599303544
C -7.183487915289567 -18.68007365864114 -25.32818554480131
C 13.78043417649799 -20.046414368310522 29.830993970734237
C 7.875403936010243 -1.5697685592671609 -24.147914750905116
C 24.39992442862451 33.629690589924365 19.610101026569446
C -5.250371350852737 -25.519795955264016 23.1312956490639
C -0.1028176875485237 12.702178743142616 -18.447797184989113
C 0.2098449578132511 10.75009303926535 -18.746685537829087
C 6.369894304118466 -0.6312078464373639 -23.223754264561325
C 5.849245433916401 -6.508969768086974 25.948446101948015
C 11.42421805281254 1.804082406148929 -22.637861924423103
C 25.22641587145872 34.29236289575459 31.944546794141218
C 5.253886941408665 -31.422859059419004 28.426522795867843
C -11.032674990202036 29.607832555022213 -5.232669151038809
C -32.86512490275504 4.891520102533917 22.011533894830585
C -29.840868212909765 27.86309120244847 -15.680102091676162
C -26.3746276452788 -13.365823165487305 -30.48685763015049
C -1.2231039388060196 32.26171536752311 -20.462765508224535
C -28.8084414255638 23.094766495010262 -11.600589015242877
C 17.217073102938915 7.314942017035907 5.075381405154211
C -26.312597206701437 1.213075159599704 -33.96499630723146
C -26.43616359099998 -15.360646671082034 -30.353711191064857
C 24.78443421392356 -30.10817826106154 -19.411510314634977
C 23.416828849554086 -1.641399559627537 19.265235770549637
C -5.606016806250931 3.4118036253454633 -29.68147725197464
C 9.706409340623779 -8.516135570900241 -4.406180897517286
C -19.83448754077584 -30.60810631938556 20.889413205852286
C -14.101833558405016 14.868558304963742 -18.823526407278475
C -2.323270361122672 -23.82065618939025 -30.822928393244016
C 22.926563773265283 -30.847761041638044 -19.350992611413794
C 20.02502771594782 10.118653643930838 -2.234170277686918
C -28.13340384458116 -28.641062705601986 -6.123119369736578
C 12.166776895378597 18.556972847825563 -33.36905371937296
C -5.99767405992261 -27.370154203177584 23.268396011063505
C 30.856449387135513 11.656309860429179 -32.206989995538336
C 14.312388478010487 26.815495620601332 -0.859991702542677
C 23.02797547227918 -29.813412960973633 9.385868306928465
C 5.720712192703734 -33.003556876883536 29.55934872079206
C -31.723330863853718 -3.7114960637396344 -20.89687192812992
70
E = -545.4625020693039
C 0 0 0
C -30.2099474886479 -2.4326925945486875 23.37494719036314
C 11.058036077022441 -0.48377852963215456 -2.276645502321845
C 19.1203690667966 20.943863995114647 -8.193057216283254
C -28.818824465075235 -30.192889643710643 -27.587122317383155
C -30.75594331398173 -0.41035945637501414 -24.565589917289397
C -24.44967884619437 28.91389347039957 32.8185768892063
C 6.756333989163473 7.318843554693089 -24.7383584611635
C -26.337115799712468 -3.609562448490232 -13.798756981853774
C -30.84157376707646 -33.875119322661476 -12.905370635378052
C -27.616356187511347 5.580867593420951 -23.10715657055929
C 28.04576559030597 12.550486746195034 16.198534558986694
C -28.391453567691446 -2.5936026105784165 22.559795856619846
C -13.731455731335553 -20.742540013468993 -24.463734744375184
C 28.493978086190417 14.050983413905868 -32.561385715598206
C -5.993753017779133 22.09644643142016 -24.33708833440848
C -13.561441806484137 -7.792045945044592 4.489073929876419
C 17.23385166612661 -16.544275627788576 -26.178527940879206
C -14.394703759819365 20.056610875525045 -8.176523170653372
C 4.885127884230748 -25.965384226598218 11.033588867765474
C -30.457116743077965 -4.066391204269445 5.406218390720117
C -31.429043284012785 -26.700508347676518 4.074605291742344
C -28.976810793532515 33.50159510692899 21.21250485597428
C -24.47403543626289 -8.235212042798935 -9.842808985790272
C 30.467807068680713 13.824687329979833 -32.7950962518456
C -5.369323111665602 23.64704360183502 -25.43573493647536
C 5.999802621790153 -26.420800884054678 29.727918331063464
C 1.2568949738309172 -16.327640710486204 34.35998710749038
C -5.53743568085772 -11.726386189102392 -8.354780426591475
C 24.950570261149664 -10.17299010006805 3.285107357990663
C 29.425642125760632 30.383007411153176 21.092796195807395
C 20.32494549773392 -8.725468357075535 1.0422134837027153
C 33.44367907148836 18.366898854195007 -8.276881788458102
C 5.904012174647555 8.156587196402597 29.06520852437079
C 13.386589078052822 21.740504151385885 22.792527578339985
C -23.797723630421395 27.647848380920088 9.95024976964401
C -27.455558234813406 -3.0389933321945226 -12.242471109094476
C 10.65673260777794 30.34180284108166 -26.015226613666066
C 26.359493774675123 24.064275988678297 6.361198271932416
C -26.21393289110555 -1.7353036141461258 -13.112750309169384
C 3.129202141165675 -3.3849350318667035 -6.062212249819515
C -30.75196972565695 -30.502134375419015 -27.995186451542526
C -14.856525194333154 -20.67581972883541 -26.116278354568145
C -30.37039751772281 -6.046755999984492 5.1439479737194915
C 3.420112076353362 -21.581418901096303 6.837741029913089
C -32.9207109268588 -17.458295579158925 -17.000090091298837
C 6.450233097482908 -10.842079819072566 -34.082645493910675
C 0.07571374253972311 24.141518010410586 -9.06354523652002
C 6.868633743299875 -26.615187802212507 10.303294429931418
C -15.266417481868979 -28.11780094745418 -19.737799614555687
C 24.98623906127677 -12.151119571479844 3.5802619141704044
C -9.040060563888241 15.681681795324977 27.720524160397716
C -9.135907566146622 16.661001668259807 29.461329855180658
C 31.26889257434857 -3.5060945404468953 29.629249081969334
C -6.968549484689244 -13.08140071845826 -8.697735876177411
C -5.193230510234002 17.655121154675598 5.78755981433013
C 17.762088421563597 6.159620274099183 23.318571175768867
C 8.2976857580437 6.5719040980596946 -23.705645050737264
C 29.911341208331848 -19.6650050000503 -24.342736790134673
C 30.99603883250292 -10.14788879869424 18.950500490158326
C 15.488190102992426 -5.297574957879114 -19.199128421706035
C -0.8271447439053167 22.718668246825253 -7.985434116963295
C 13.201593528567948 -8.934880580333221 16.613260616505578
C -29.143420354796543 4.864943276112384 -22.03292144683601
C 27.218928558695893 31.162786324432616 -30.24342191286866
C 26.545176449214168 -11.240080452070348 2.719216677441192
C -14.541985058503364 -22.420726090949596 -25.19026552562857
C 29.11319699339232 28.522653590788057 20.42964933938003
C -33.03993442478777 -15.49223964388554 -16.648736758475923
C -23.37575972226672 28.719658805274207 -3.9003917300803153
