10
E = -34.58604316004951
C 0 0 0
C 0.35981692260152753 1.6870960025431692 -1.0886515088841702
C -0.3943522586582371 1.4067210805971229 1.4557308183014865
C -0.49304473934710114 -0.9856167376474432 2.073537441856804
C 1.9516370329721844 -1.3457736340396544 -1.8224447774574641
C 1.9554648577538898 1.4990623018783866 0.11835003901233687
C -1.9938086750881923 -2.050874328404606 -0.5701475299724128
C -1.8377564332653575 0.24546520607335154 0.46468298509585404
C 1.8691191206173987 -0.5299512589706579 1.5331730846392673
C -1.3937665786898052 0.5583774316915906 -1.5603024499987304
10
E = -31.933852514022373
C 0 0 0
C -1.9639590179937738 -0.4622915037091815 1.2773618794697166
C -0.17900249224446751 1.8221584578689196 -0.8263437768691257
C -2.0858592068684314 -0.7482589110943456 -1.3038049798423432
C -0.7499857233150495 -2.0672815598793264 -1.0035740810467588
C 1.9555708045932518 -1.9110944741854885 -0.8799606559646875
C 1.444057608259 0.8445778756142288 -0.7862167879329744
C -0.874667226497057 -2.115472970806705 1.1163708326940553
C -1.6326045849607123 0.7391846644725448 -0.6104652789555554
C -0.04003092755741822 1.3520946299933891 1.3369290518445536
10
E = -32.41107457848109
C 0 0 0
C -0.551061145463968 1.623725151191071 -0.8215097704201355
C -0.47290572340479264 -2.0502884045744554 1.833317421290658
C -1.6633219246128572 0.11666488319020196 2.067805254551287
C 1.5526823682425595 1.7397260389577296 -0.22651766057780987
C 0.473069002171298 1.3971736125287912 1.2159248057745642
C 0.9768067848798379 0.16740326713204245 -1.8126142271315775
C -1.998651123952899 0.041227593461559575 -1.8675415524920724
C -0.5544229907881106 -2.05762484610323 -1.780539237495618
C -1.6744570377427768 0.6867864781234347 0.42487933328253646
10
E = -30.45171959990133
C 0 0 0
C -1.232860229461954 -1.705293797039789 -1.2720750988971794
C -1.3228118079541893 -1.3942706740551367 0.4895145850081599
C 0.6576403723079682 -1.451692052539231 -1.5456859432625318
C 1.3676303335769564 -0.11976290562276004 1.1085982080084693
C 0.4803984688538181 -1.3908630222057017 2.1219051281150816
C 0.3149761481852127 1.6725544068954532 0.6367822430839052
C 2.148970168183127 -1.814548314436329 1.5866078165918016
C -0.4439699080326096 1.2052008451790783 -1.2187866107458771
C -1.2883507461239736 -0.4455648101757268 2.0374416792945538
10
E = -30.59889849684547
C 0 0 0
C -1.3557656246844372 1.9237470041738853 0.7204763534148646
C 1.538895398010455 -1.7556282981090978 -0.13981137876048644
C -1.5696677132213082 0.524672078038543 -0.5168012792599872
C -1.593688167468387 -1.6741872308263512 1.1762730434423538
C 1.6399157399554327 1.3856941097922113 -0.9105998335903556
C 1.7829815308393124 -0.9878089285827929 2.097422722616592
C -0.40604594047870335 2.0096074685110987 -1.3051733258901193
C -0.938679915123408 -1.90625992357592 -1.7101827523447515
C 0.18086760578297545 0.20975293055109834 -1.9721440159930639
10
E = -31.382664527320465
C 0 0 0
C 0.5301727470449729 -1.7067717165527871 -1.235414171972727
C -1.9871997291061472 0.26052612200881153 -0.047567252345939615
C -1.6238878400126975 -1.1753007355360596 2.099327611789055
C -0.8403301776188992 1.5535114745614416 -1.0664722784228216
C -0.1912598055884538 0.6326779975023142 1.6138518627978922
C 1.6358766983003799 0.9801080323097584 0.9483826988238357
C -0.9816880226497304 0.0485185851439347 -1.9609627541141013
C 1.7708687019157043 1.397399026972852 -1.5229642621699389
C -2.0192495126889902 2.0260581786205685 1.4452996592524832
10
E = -39.89921760925057
C 0 0 0
C 0.2751672085775989 1.7564310945907575 1.4580328652279713
C -1.1100253322399933 0.21792906325308792 -1.9051747126107743
C -2.062775101024503 1.9077149431982856 1.1086065031711305
C -1.314902710697176 1.674538423086887 -0.6554308250504035
C 1.4872963861864412 -0.22750326928272524 1.8497614744921411
C -0.6091398233792293 -0.6498236382147509 1.6428238609161214
C 1.6208668635823709 -1.7544560283397117 -1.1223296713106359
C 0.8374440893720707 0.015971833515807887 -1.691651209331597
C 0.6861375580668883 -2.093891787256356 0.7900635801722591
10
E = -34.283552893893614
C 0 0 0
C 0.1395340209024174 1.311869751660832 1.1788793799908097
C 0.010422272748227712 0.19232979906225323 -1.7591715098994172
C 2.1383060781840517 -0.35186552843593066 1.5316199473702192
C -1.8101120734708886 -0.29523599199233086 -0.7623043221734389
C 0.3801593038416664 -1.2481217043693273 1.9377032058020505
C 1.9572452379341896 0.44881935686256824 -0.22090834010238702
C 1.687402215917004 -1.0804321675126276 -1.637751754977796
C -0.07076572950231919 2.051240854734376 -0.4019962675251232
C 1.7000931121507281 2.080018258221308 1.6367831763692493
10
E = -31.580880387452424
C 0 0 0
C 1.750906603993875 -0.11985254060856176 -1.2464836598371325
C -1.85254668474558 1.0783249032666014 -1.553297189089104
C 1.429169744020757 -2.126679401527864 0.9273284796609125
C -2.0280888228699783 -1.6300887451655055 1.6408940283459534
C 1.6108530754248904 0.268134152981256 1.0869381670774305
C 0.46737197609176384 -1.293382361340685 -2.0418748075443873
C 0.7041813313846461 1.640431935353989 1.7201469107190044
C -0.9927065457726911 0.3712124913551902 1.7606278585558446
C 0.9361359962516267 1.4636102644475386 -0.49637287636655203
10
E = -37.15708549814927
C 0 0 0
C 0.6317051975093757 1.9354405634894962 -1.4626030814316673
C -1.860952907749608 -0.6843147374233811 -1.970394879733451
C 0.23029772142396743 1.0276471977792956 1.629633905408272
C 2.1107871921540338 -1.264448620956962 -0.021875825889648315
C -1.3823056902607762 -1.908721697245837 -0.10367524350262602
C 1.5486437310105958 0.9765701017307973 0.3932710359980742
C -1.9785362404244484 -0.11068156668786822 0.4830685664702816
C 1.568458900761966 -0.39423385651432796 1.7232726806486092
C 0.3891549300454731 -1.218401812644157 -2.039485491316326
10
E = -31.185721914953042
C 0 0 0
C -0.28664302713632916 2.135414087870069 -0.09660463632445104
C -1.1490212984637593 -1.7319029581702872 -1.6258945658192163
C -0.33116186053326446 0.8383862777366611 1.6848269799688302
C 1.7547108077904165 -1.3371814129740898 -0.8637392673352131
C -2.0783400337290177 1.9110169431016177 -0.47078067879210517
C 2.0894421517064505 -1.7594148049752074 1.3995617532295364
C 1.7475875980775224 1.1734074237916476 -1.3309660797641025
C 1.9814408790323736 0.3026647191623604 1.0805318871865182
C -1.5375215776346498 -1.0310855079672225 0.8627923631024306
10
E = -35.061521522565755
C 0 0 0
C 1.8737861779510179 2.0033987541479212 0.06964320228044762
C 1.111679221555474 -1.1826379364817399 1.309389758336415
C -1.1428554417416965 -0.9748037441750745 1.5394859548882565
C 1.5036893535015934 -0.2989561438183357 -1.276124320980551
C -0.18689488629710627 -1.6199622462114336 -1.7612470449986528
C -0.29360499613182567 1.8023231101555646 -0.5813964149808162
C 0.6376311923531621 0.6836930252353084 1.883957690661234
C -2.1340714341934723 1.0389308934804604 -1.9503881488870163
C 2.085769897030722 1.7221190105715265 -2.09595023748347
10
E = -38.43004068329037
C 0 0 0
C -1.5069281802282342 -0.6728299765859118 1.8862464009891622
C -2.073575515831317 -1.6099030815790278 -1.1062470308973698
C 2.089767190043586 0.7488699690906921 1.8105787384992462
C 0.8668652449386878 -2.1449826813482322 0.5061658888439129
C -2.1539789106883402 1.5083572115018984 0.07573856520122302
C -0.934649333745109 1.2455156137136254 1.7932352791687012
C -0.8615263345620767 -1.649637082291721 0.39206625781589866
C 0.9700795668165716 -0.7459332715697364 2.096038470893396
C -0.13254996742215663 -1.2039445997396943 -1.4347588909010347
10
E = -32.94322204892829
C 0 0 0
C -1.0419034990689413 -1.4821179830495574 1.1174549892928427
C 1.9750053523242745 0.7656659323638602 -1.914641101721672
C 0.14082929876385464 -0.08674608277436446 1.9737250100972203
C -2.0334740061406977 1.2340953035365367 0.4064089231118002
C 1.7429296404077954 -0.050973340954663104 1.3888586395518798
C -1.0436791876157103 -1.2451383639042417 -1.0154285923926127
C 1.2058098100443995 1.3212609127009713 0.45990809536685884
C -0.5580409058408007 1.791861340766007 1.2116437025103313
C 2.041279505931261 -0.7469104307563874 -0.5722510506507263
10
E = -29.941966352045522
C 0 0 0
C 2.0994573228117894 1.6829004850732971 1.7013245574651537
C -1.9591604649355885 0.6587658991582659 0.06677856644050806
C 1.185116276101874 2.0562849442563054 -0.5568741834164972
C -1.964497878937174 1.406903979168578 -1.728246694625955
C -2.089614065858871 -1.9074974549022237 -2.1292249734207114
C 0.1783044906596567 0.008444724071633214 -1.7978560488380315
C -0.6938152164087608 -1.4352145745968405 -0.7653714548505997
C 1.1550776168320347 -1.7162440999179318 0.5297434933494531
C -0.21789959706462692 2.0406657134411668 -1.697403704041465
10
E = -31.67135320471946
C 0 0 0
C -0.6248880414104829 1.0295104954842151 1.5047001616973583
C 1.1426054840930666 -1.156854509905489 -1.4351312951372555
C -0.42942194091363795 -0.3630280686163614 -2.0803279972869912
C -1.4284440880580727 1.8511840947018956 -1.4672827132725719
C -0.5985668900468455 -0.875536129175986 1.5289704879904567
C 1.5815995037312325 0.9353839984432484 0.5898568411177783
C 1.8310757940117979 -0.9158218637982509 0.916008851897169
C 1.604250258577466 1.732197824846942 -1.256854803808935
C -1.6124148124180828 0.2281382913256147 -0.2802744841518645
10
E = -29.920295844002577
C 0 0 0
C -0.5684108864235404 2.1126400187446213 -1.2770205678545372
C -2.0260825454144884 0.9017946429241359 -1.0692543262189589
C 1.5358951500979354 1.794483947526373 -0.0486284157404131
C -0.12196241096611926 1.5722751087001914 1.4247705863479574
C -1.4116462885186014 -1.3585725686405676 0.2837853246561415
C 1.9014023820788482 -1.5386669915401847 0.8797469473678001
C 1.3272238893305754 0.10573042895046747 1.3602116953813201
C 2.148944779537461 -1.9594107103339082 -2.1466199527253136
C -1.9732567208286107 0.7235670280009012 2.1043072355663397
10
E = -35.30103075739828
C 0 0 0
C -0.23459012922542888 1.4713616956830924 -0.7687352141696631
C 1.3111220109804376 -0.27083202143368434 -2.0330652255499118
C 0.6605453028734054 0.20220930108652846 1.7351365417829534
C -1.277552291788996 -1.4539735849490203 0.5819732981779837
C 1.6063108691945307 1.2468020277499914 -0.6581134497011321
C -0.3158580191990983 -1.2637087673488963 -1.862970848344348
C 1.4856623587421067 1.8935163245232638 1.3028131007251917
C 1.4548394244480076 -1.0684536309761603 -0.025045739693905666
C -2.0779531099671766 0.5126875539916833 -0.7437617437642814
10
E = -37.493248423766914
C 0 0 0
C 1.8400527735239742 -1.3848193399330375 -0.6559756783204029
C -1.6721097356566756 -1.10040866835397 0.39043047967387023
C -1.3821932451580359 -1.0720511380645126 -1.618839255960884
C 1.784878258220561 1.4651058181771015 0.7890794046467273
C 1.0673421865210853 -0.4920635468624037 1.3652363889246626
C -2.03110632017511 1.843039775298572 0.6441023626127316
C 0.8093115428263964 0.1520082766446298 -1.637870726503177
C -0.2156440513115192 0.9511838595600444 1.4944115053549671
C -0.26597266561370736 2.1226646264349687 -0.6494500332666073
10
E = -31.00248815505163
C 0 0 0
C 1.4530853261454997 -0.34845840366140823 1.0996968836455352
C -1.557723071835809 0.7441090109580539 1.892160880558301
C 1.9403044191527283 -0.6573532172353751 -1.6090981892815943
C -2.137601764396 -0.9082233442819898 1.0158291882842811
C -1.272097981396572 -0.8797221785378309 -1.3554444048326206
C 1.1310779525326673 2.1215839978805993 0.21145702353755702
C 1.697885853820598 -2.118052443665742 0.18253432770152278
C -0.8690889940918103 -2.1124437442311272 1.7800032928744507
C -1.6994832395879726 1.127938554398781 -0.6831269861217388
