10
E = -31.796203538983384
C 0 0 0
C 1.544131545025309 0.7571300887647743 -0.05979586135378279
C -0.5976644381824034 -1.7229390451896924 0.09413775081449094
C -1.455143937971842 1.8105725554869379 -2.1372029693811334
C -1.1158646347775805 -1.806498399013539 -1.7796820238133764
C -1.8894430318055497 0.11408070817586902 -1.3790062605676088
C 0.7838836024532192 -1.9460232982678243 -1.1589741292184046
C -1.7463073699811422 0.28119441395678146 0.5715372066348108
C 0.5696539717253892 0.9797307484290174 1.4466514983526206
C 0.026537608670951673 1.6997817560925887 -0.36552538780383026
10
E = -34.30750978343546
C 0 0 0
C 1.3683998319284543 0.7290768046573111 -1.9809748892722703
C -1.3429201327453102 -0.5938475019027396 1.7070803757405808
C 1.9815453087040749 1.3384807072695466 1.1679965715441858
C 1.484356626493224 -0.8703422487488315 -0.7367678518227512
C -1.6785873604747015 -0.8302285038548236 -0.33541297413452176
C -0.39584015379666715 1.5619343204818863 -0.579818158902559
C -0.5689832950473259 1.4767880126784294 1.332872095939862
C 1.7355599775567727 -1.9369106287919782 1.8862165626278364
C -0.37241890809056066 -0.2468988295427308 -1.9781257286442
10
E = -35.639120313957214
C 0 0 0
C 0.039785418479394874 2.0968502721525746 -1.9482287133996146
C -0.17462938567319397 -1.7672752051482883 1.9928856453491544
C 1.9822488738130217 -1.0279072392652733 -0.587589418390001
C -1.8893614089021464 -1.8254191274167717 0.5660772359340989
C -0.7045812235225459 -1.4604868672138545 -1.3207007406770133
C -1.6851716104797347 0.0959527686592514 1.1108677557636208
C -1.8791556102817228 0.49612966271875525 -1.2380570558411468
C 0.3789468786038106 1.2867696398849255 1.8259227502233704
C 1.1824373422348522 1.4561870406303 -0.347099822283119
10
E = -31.701227503430363
C 0 0 0
C 2.0316627057684493 1.9570544492587802 0.9952150437078031
C -1.6936578127226825 1.0391400870280703 -1.5225826055179188
C 1.7824506438048875 -1.979364974111115 1.8141488527049119
C 0.32905797590865227 -0.1309677604201367 -1.794315388634795
C 0.8644325181787789 1.8506359070459157 -0.7408874013954623
C 0.02392321983589163 2.0361458881312937 1.3466804767286478
C 1.8356290465954719 -1.8465508844374463 -1.7995369911406756
C 2.1360997270154587 0.10545065705252732 0.8607269033531195
C -1.302440309224203 -0.9167308671861722 -0.7745853962927822
10
E = -34.5768605922048
C 0 0 0
C -1.9612310748810275 1.7627177959069842 2.01494172130424
C -1.7475888305840899 -1.1803807515699734 0.09639256196638657
C -0.33608194263311364 2.015041437978067 -1.6232572369064382
C 0.8446971970999937 1.6173741122567686 1.0239696355258272
C 1.3308495666922946 -0.30977599240264886 1.5575634860790442
C -0.654038814705691 -1.9437899393929758 1.7201147933913523
C -1.284607550806231 0.5791648044364059 -1.6004893966014802
C -1.7039505453320698 0.7301268370733669 0.5193933782012516
C -0.1367087473944415 -2.0030679875402972 -0.733182608865651
10
E = -37.56698415810938
C 0 0 0
C -1.9598866989562744 0.4863266754602624 1.2070391350172391
C 0.16924669535079184 1.6285049339065352 -1.023183817844649
C -0.8515770897790738 2.024801256653212 0.3502201109957257
C -1.6899596163132946 -0.10346290509254441 -0.7555609689217913
C 1.4678268888131853 -0.8696207102476121 -0.5222924321197531
C -1.4490862134751157 2.1125798347748375 -1.9662669974647926
C 1.5850627723954624 1.5516260465946208 1.403177365193323
C -1.3663795819163818 -1.3233380720642802 1.9474292701775018
C 0.15338906434942645 0.24819990067221553 1.9550878416823472
10
E = -36.19706836013701
C 0 0 0
C -1.7391706536740716 -2.127849422369826 -1.331088226866325
C 1.6696169245438788 -1.9026597142391601 1.9470757688292868
C 1.7551456979069915 -1.0920852330994315 0.2682090057172273
C 1.3661138482999733 -2.0313297686159197 -2.1351796664160743
C 1.6031004310327162 0.20824747652038944 -1.5882724142435884
C 0.35598592171048793 -0.33846424865459257 1.9109206082540209
C -1.9895458121190888 0.5493625129217756 1.8793228459761653
C -1.7416031390464914 1.2786215641361682 -0.07336770340856091
C 0.08769198034336334 -1.913251362924864 0.39484033805240193
10
E = -36.11484797323352
C 0 0 0
C -0.20072761577645282 -1.73163702745365 -1.882849843562607
C -1.4090793811537785 -1.3279899268077475 1.3602496086721363
C -1.554511477697948 0.9777099287700493 -0.4824797556287481
C 0.3864804764225136 -1.6308768514973013 0.9170060402670654
C -1.1648957118846126 1.943486581772024 -1.9796290132401846
C -1.5815825705292657 -2.005244490706361 -0.5217791106568959
C -0.31554062073413225 0.10687624978735855 -1.858966213074865
C 0.05717884620172864 1.6080067198633161 -0.5324362405723198
C -0.7122402372391248 0.6378405750933847 1.6388933143398816
10
E = -35.38310108945471
C 0 0 0
C -1.6900201800126031 1.972332999175618 1.1617999953243738
C 1.893403848635907 -0.40787329905580894 -0.6707560269221351
C -0.391104605037603 0.4009228239592142 -1.8985662662522786
C 2.0798055214466564 -1.7888164680701129 0.7917785853658161
C 0.16657302201892854 -1.9480052463914008 -0.5185070649718009
C -1.700254879782859 -0.8454089463525098 1.817070479523692
C 1.763411506942146 0.1104977716865041 1.3292323116171878
C -2.1407805306028895 -0.6130144474195429 0.07536500544088698
C -1.3846311314555284 -2.0861756598913934 -1.6131130107355796
10
E = -35.207344508850674
C 0 0 0
C -1.6871802635166606 0.8618984661884381 0.4933723881600711
C 0.533041700410156 -1.5072244980482465 1.3234294183934523
C 1.5427417122548648 1.0001739432677472 -1.4105219383934382
C 1.9601339803276505 -1.741421807196842 -0.04877360125978569
C -0.461055628199438 0.17185934115616863 2.085259498797886
C 0.40179688639697764 -1.979950791425623 -1.3488622705702173
C -1.8629003810746665 -0.496124567825019 -0.7153521080320877
C -2.011034197837254 -2.0607044608103764 1.935112090779222
C 1.2864307961286299 0.22163115846126802 1.8224629572486526
10
E = -32.58747623248453
C 0 0 0
C 1.3986762436279734 2.113441415791835 1.04829456895034
C 1.9536705559475913 -0.4240036665811018 0.3066685106067779
C -1.824197907125984 1.2253368173142367 -0.11072469544471675
C 0.6042662567173447 -1.8179375237472604 -1.8540514137808763
C -2.1069141076823596 -1.766323477875522 1.50447962045207
C -0.7799114996247147 0.7016214073798546 -1.7131203531452626
C 1.6448935066396961 1.4174609744626712 -0.7573333121030017
C -1.078478281568351 0.534138978087872 1.716455416065798
C -1.9759772839235035 2.1418487602653546 1.7752099271969226
10
E = -39.73378972722213
C 0 0 0
C -0.45665131664820824 -1.3209074353513461 -1.226513786752086
C -0.600780869598303 2.0635393445593118 -1.973693882454425
C -1.642933684365571 -1.8797437423523315 0.21032955216458715
C -0.6410839418950796 -1.0377173244062183 1.783134147825972
C 0.5849389218981238 1.9082603354405117 1.3129797513021217
C -1.6013112449275888 0.611677870311965 2.1206226152173318
C 0.915258943970561 0.16705731641686805 1.7340842967879033
C 1.0148674759971033 -1.6710320641742569 -0.07438441413890251
C -1.5723184440869824 1.6571184575215896 0.28836990244526817
10
E = -35.69902657617652
C 0 0 0
C 1.6080274867308506 -0.4592238522636223 -2.1503145945065922
C 0.1523024599673608 -1.1135811227955819 1.765632846571053
C -1.8566902544458805 -0.19052135609319532 -0.09481321831762779
C -1.5115564501615197 -2.0880470586423527 0.13540431243223683
C -0.5436420557642361 -0.4607895754814557 -1.7173055327166835
C -0.30599449703138637 1.2637411976985948 -1.2927989707620584
C -1.0729553131918197 0.22692031230671095 2.0594690078847093
C 1.428227469895361 0.5975092004420688 1.2181592076979388
C 1.540763221851131 -2.0015029158284205 1.023916379615251
10
E = -37.186470314337264
C 0 0 0
C -1.320227687403439 -1.681393161400752 -1.9363655524822334
C 0.13936814646667672 -2.081109718338175 -0.7044310217068575
C -2.016802978935675 -1.294331184486381 -0.2189468156257588
C 1.032513253199272 1.7818953093808814 1.7328114348999657
C -0.21408628185153167 -2.151457228334609 1.083194166397523
C -1.6436482603158113 1.6775234267395018 1.225176768707339
C 1.9642148655605562 -1.96540125845718 -1.6772800953224118
C 0.30385039933898605 -0.7958128172011953 -2.0936266108564268
C 1.6911200088988325 -0.5678013969049682 -0.30154563935846057
10
E = -33.387518788173004
C 0 0 0
C -0.6073266709030385 -1.6554909011886996 -0.24565826637896748
C -0.2628638653908504 1.2934985664609258 -2.0492833403537274
C -1.033646923425323 -0.20939752237218467 -1.3528264309246043
C 1.70910001130044 1.8239363169180387 0.6601877685989392
C 0.871842668117691 -0.8718059098414201 -1.7641996000570548
C -1.1337181809570032 1.0577024199643925 1.2294634749995068
C -1.7709630010112285 1.991291472959531 -0.5878334466161557
C 1.1492119911089622 -1.5109838338649302 0.006099147315718145
C 1.7849557299467604 0.20341646602204522 -0.18524345819522137
10
E = -33.715945572587664
C 0 0 0
C 0.3516820993256209 -0.8794868346834719 -1.87094839213322
C 1.8519756203112059 1.79155544818274 1.5690757956415684
C 1.9535121217114342 -0.8202100775028356 0.6965150153556041
C -1.9589961192598082 -0.9339295879976623 -0.5099302993339598
C 0.6657770464703194 1.8231136580123075 0.2038984374918611
C 0.5991230390155984 -2.145950670452714 0.17157403560275242
C 1.2800599105169557 1.1093213442210135 -1.7596784576310978
C -0.20010771477182043 0.33322931621894325 1.6909560389338236
C -0.20600613723582795 -1.4801485561472991 2.1186116988232135
10
E = -33.9143014619675
C 0 0 0
C -1.1911524486162919 1.4240252267499667 -1.2712149431931832
C 1.737931617318904 -0.8427244310177593 -1.0072110377899341
C 0.5338711327098737 0.7096867603858543 -1.6103017982655567
C 0.7982218587383447 0.9710157513727014 1.8145226676262562
C -1.4825250405425876 -0.3476677911829531 -1.3254943433109716
C 1.9989681533042867 1.5962236542103638 -0.08636329543528598
C 0.4442768705601874 -2.0365303169189004 -1.5150507303550749
C -1.290799353150462 -1.710573217808627 1.4402892227318116
C -2.0982342919717922 0.5942411464556789 1.0814125766175624
10
E = -33.09162033013389
C 0 0 0
C -0.4581556865847143 -1.7948835927482407 -2.096108407058566
C -1.9882505425074692 0.2656787359470294 2.096101055673445
C 1.5632491871971261 -0.8371979817519464 -2.0350926432179475
C 1.3081134124978995 1.2079350010126646 0.3441621773652628
C -1.550841072679693 1.9322359130882565 -1.7053019591903584
C -1.39907205705877 -1.3441727973014 0.692210455169946
C -1.9135082414492244 0.491579801212354 0.22699089211620738
C 0.3832833512864249 -0.7584503838267433 1.8386025479358348
C 0.8190079082536754 1.7000690352261385 -1.4937357773191562
10
E = -34.72181887002354
C 0 0 0
C 1.7808458690654323 -0.35194208828248774 1.066934612386481
C 0.2935850535572291 0.14525349318381142 1.8065927320240838
C -1.6084199767417062 0.14303751330276704 1.3379052934809472
C 1.9124227002854037 -2.0999661036486823 0.5785821907286657
C 1.0469846304299968 1.603327119569892 0.7350590474883583
C -0.7623854047017664 2.0407953739890226 1.875585271666266
C -1.7533044290351079 1.0491054877698458 -2.04140572270321
C -0.9431245253116352 -1.8358313772987835 1.0833622082811658
C 1.1569738446025788 -0.03192039048608519 -1.4152737233469455
10
E = -32.530188081107624
C 0 0 0
C -2.026357942030501 1.1170986246303523 -1.9227389902573337
C 1.5356538993199829 -1.6133174946576339 1.562796593630401
C 0.82402376813475 0.19050864196760964 -1.6967039170004483
C 1.6664081575989025 -1.099116854525575 -0.4087612592405665
C -1.8549764180704356 -0.9596757549742028 1.5998823345985689
C -1.3883620206625467 -0.9807599662672573 -1.0598943538694288
C 1.2420050894808714 -1.525601471917818 -2.0549308080376774
C 0.18581356273142546 -2.088563120146202 -0.567873999901459
C -1.1663719313063616 1.6484869016598016 0.8459471092627004
10
E = -33.93884865807755
C 0 0 0
C -2.0533947110871873 -2.0816854431191563 1.7961667642732504
C 0.3072153641360531 1.3569357061203813 -1.1584396064509024
C 1.1029503185922849 -1.8249790478595558 0.04316462446733027
C -2.1198283278434458 -1.213296100134499 -0.7370899503935247
C 0.31367962353411993 -0.7455591500119783 1.8787612169600343
C 0.15558037090702648 1.1727231495350314 1.4040727764638836
C -0.5365579431961127 -0.1401230049108113 -1.9666163850551632
C -0.23270759815802755 -2.000267859368996 -2.0568999176946634
C 1.9071095163597387 -2.1527672994693043 -1.822851708515838
10
E = -36.475187298518726
C 0 0 0
C -0.9451339271502124 -1.9234872141123007 0.06196805588932541
C 1.822012344611001 -1.9342390563291514 0.3629840142361829
C -1.8545032224070677 -0.36049974997994183 0.937202857722371
C -1.508658306000094 1.2686491841013585 -0.666881686634071
C 1.914908527845315 0.04485082295210896 0.32293286784869357
C 0.6939706435690507 0.6248023708302033 2.1248903328804434
C -2.12141622108331 -2.073701141827618 1.5802688462229186
C -1.0537981940784624 2.077112029770007 0.8379538972079352
C 0.9688286501164227 -0.5796304656697575 -1.5311966105240349
10
E = -31.650455894543864
C 0 0 0
C -1.752113820213684 1.9773419077597967 -0.020742874014655577
C 0.8222148491177754 -2.090859023741144 0.4969239439610855
C -2.069691598332174 -0.25334770423182973 -0.5210643739201517
C 1.7120211787829183 -0.2945700915152554 -1.2865174277070954
C -1.7121242197036537 0.05506365973614802 1.7739767524713548
C 1.1659704290252146 1.6925359259724755 -1.2318825187023692
C 0.29249539687544646 -1.4522978404987579 -2.099778587903768
C -1.397099358546153 0.7558910151662439 -1.8065045600080036
C -1.7268444220410661 -1.9339250555209053 1.6240764564420114
10
E = -41.64578973271641
C 0 0 0
C 1.4591268560107742 0.5840070272063347 -1.4084743903762345
C -1.6249294908408625 0.5495224957123033 1.2348293776887327
C 0.5863339033075907 -1.7371363615796054 0.08433586135121818
C 2.1300934618341762 -0.38846140492602377 0.003529431735670663
C -0.3705167328520642 1.905870986337176 0.29726439640313007
C -1.859549377141454 -1.9127072735710573 -0.35857094339146856
C -0.24965978537097366 -1.6502844076973742 1.7874057127608434
C -0.3918884051504534 1.2682776418224044 -1.9814403017353284
C -0.6501747543468326 -0.985057838635917 -1.415002876553319
10
E = -38.86106839575907
C 0 0 0
C -1.636323853006977 0.14957733042881882 1.1290533480098026
C 1.5651056148886702 0.37722949557380625 1.8462352319303021
C -0.13651940475737634 2.133896991235227 -0.3723727718471199
C 2.0204425417664162 1.378140681677714 -0.1816071714606351
C -1.7192828319893727 -2.0222103224409542 0.9844012249036971
C -0.700196184727063 -0.7451003998582941 -1.6420098930040077
C -0.21970879752516792 -1.8336441455014607 -0.12434362544480004
C 0.3551293166095082 -1.4501029935177763 1.7286156190238997
C 2.060931901128234 -1.4392484708344035 -0.49126828591426275
10
E = -36.98302958565964
C 0 0 0
C -0.07040171149276908 -1.892149496023685 -0.41604730695050374
C -1.7708908162194685 -0.5692851403414394 -1.015496993546359
C 1.092536981754658 0.5096395875127526 2.0976440959222695
C -0.2256427296687662 1.7557585050504638 0.7605763902194691
C 1.412953324567253 -1.955214195373628 1.2725408801825142
C 2.0906516380424702 0.8484981819519595 -1.7606784259823671
C 1.9173761868064108 1.7896956224666964 0.5548421067938407
C 0.7341435039629753 -0.4956345487062057 -2.024714620864865
C 0.5152334215501493 2.074996312089031 -1.740692062797586
10
E = -34.87735535589933
C 0 0 0
C 1.3538920463324353 1.1986750106622672 -1.2503564116149573
C -0.04919454051776295 2.145467168771615 -0.11167283351933444
C -0.8540797270547658 0.30361488968510786 -1.825143111575847
C 0.35933836997694657 -1.8058343105773855 -1.7302482313380414
C -2.0283280831736246 1.6855395457080644 1.8897831907351939
C -0.6564347874030825 -1.8528077154344713 0.04340483604491707
C -0.29637921431030545 -1.0811323110772213 1.6732599695079169
C 1.2853259134368713 1.806446849833851 1.7565899991501994
C 1.8905265254997494 -0.4820109479366024 0.7843243206150308
10
E = -36.88635461412615
C 0 0 0
C 1.845124593587442 -0.0583568269045216 0.9265996060695794
C -1.976044944916418 0.4588296839384598 -0.041291972947576916
C 0.32098549721587855 1.9792208870849977 -0.007502663181814029
C -1.4173825638224131 -1.359747020839046 0.2329494552929554
C -1.2608868021802093 1.2527222244073322 1.5069441533831496
C -0.8641910327117697 -1.1333454474550122 2.0942453181205027
C -1.4529223263485895 -0.8141303453466953 -1.6732840614816356
C 1.84952051322113 -2.0905717427356065 -1.7118698560491414
C 2.0464543002522313 1.8863152107213321 1.8133413928353397
10
E = -33.379001620981185
C 0 0 0
C 1.9257842920098143 0.1599770294646201 0.1846257795741013
C -0.5801289534450909 -1.271993283654282 1.5283273065046932
C 1.54558256913469 -1.4799756444444863 0.7172149712830573
C 0.003886441275787522 1.1613180876779698 -1.971368070995134
C 2.0173149991654875 -0.37325828007792516 2.0775371404736798
C -0.4513386311621759 2.1092121086937294 -0.11494579272384486
C -1.8573997557558857 -1.0333574187019805 -1.0170709196782008
C 0.02299827722185821 0.41623314132498956 2.0496209821392184
C 1.557564366404939 -1.890022012942658 -1.9443963993925406
10
E = -34.901786624340026
C 0 0 0
C -1.5551412499990358 1.6014401537811538 -0.10395968848286419
C 1.6927021360609547 -0.95676786867069 0.0663362260123237
C 0.22915782456831835 -0.48692782473595586 -2.124946058468242
C -1.6244344552014798 0.9225612457120955 -2.139496087810565
C 0.4576838609154015 1.4876501743344606 -1.4840266729512848
C -0.7658227723787951 -1.664818191869883 1.0119655224358053
C -0.21237838317251123 -1.9524765413339016 -0.6690797615558208
C -0.6233383078411046 -0.27239834551466924 2.1156065205709313
C 1.89480045312648 -0.6588371844885395 -1.756164372816243
10
E = -37.6359378710888
C 0 0 0
C -0.08017810521107238 1.2083585500739633 1.9521003111298074
C -0.19169462607204713 -0.7516418041011683 1.6114904307967213
C 1.516410495921452 -2.0888440129893553 0.4036261169286042
C 1.2082016851269244 -1.2549736228263293 -1.2515628767234457
C -1.4656861373171295 1.1553023456580283 -1.6890499854503682
C 1.9713008562686727 -0.5405888746181551 1.2976616295652765
C -1.6760896890737706 1.0730240623548535 0.4950962951757014
C -2.0883733453748548 0.01875640587277072 1.9286205478748868
C 1.3541440676887184 0.6027350541213972 -1.830761700296962
10
E = -32.4683285328364
C 0 0 0
C -2.135965903803016 0.9932195263943173 1.2579175579351594
C -0.5648694846993585 -2.0478138447188146 -0.906843909461835
C -0.5515665272358261 1.936037336147589 0.8988486847205599
C 1.9557217089539702 -1.3065419614532536 0.14571085983879684
C -0.5737999700889378 0.48052051329013645 -1.7633976355422736
C 1.6277243424337504 2.0416574616796876 1.436823230129706
C 1.816955518980158 0.7246085947918393 -0.8987616205072388
C 0.15558060375203064 -1.9743324957386994 0.6360089160578286
C 0.49295795805452824 0.3459986036723075 1.8940920059794855
10
E = -40.37785720465959
C 0 0 0
C -1.7919437660055775 -0.1786512819629147 1.8495407052780313
C -1.417926385341368 -1.8561281498682334 1.1743115177687846
C -1.8943611383407328 2.010360879813279 -0.6290952402669312
C 0.08955741197902967 1.825781425254327 -0.935026586817111
C -0.6195454498667232 0.34224024229518646 -1.859451674027299
C 0.40988520731716127 1.4949350487065574 1.2717695357227545
C 0.1416350188355988 -0.9984841773407005 1.5173532006127326
C -0.18121316271030175 -1.623430783171894 -1.8417333117012482
C 1.2017261319537949 -0.045814333514394345 -1.5603215993533253
10
E = -34.8933965273871
C 0 0 0
C 1.6676212046725793 -0.08588565308125684 -1.972862612592839
C -1.8446645699995294 -1.181582926596504 -0.39384570996104484
C -0.4425091389865694 0.739427037410465 -1.9936851381488656
C -1.7158743455046348 0.9847759557031588 -0.22895538066847854
C -1.8967480204816105 -1.109319546965056 1.7825118726832985
C -1.9908025070643438 1.9603293600859906 -2.005089915113544
C 1.2034307260249584 -1.4819369297109315 -0.06633753686141652
C 1.2664960016239384 0.9307015683459499 0.8573924421599242
C -0.7276064601332757 -2.030559847460837 -1.8069297454968667
10
E = -35.198498640077766
C 0 0 0
C -0.5061557902994944 -1.8106117699860136 -0.3867523202177541
C 1.8830492691777043 -0.04860210703314616 0.31977893506694244
C -0.2788156301512372 -1.2966573035162339 1.3116007784577879
C -0.5986430404384675 2.0732830573231023 0.0274212377520775
C -2.1021770416094716 0.32408753556473613 0.5162803240588154
C 1.8394428664641236 -0.5252753726546397 -1.542632642892647
C -1.650247773978617 2.0379564717791703 1.7294904662910104
C 1.8656587578875068 1.5887098230995256 -0.5131839125178248
C -0.19259301393974382 2.0982955900362037 -1.9603380176638352
10
E = -34.67653455667321
C 0 0 0
C 1.7896820708698002 -1.8265949795238239 -0.8580209616016887
C 1.7503824674100597 -0.0795547812206685 0.5564684825337616
C -2.1033210548664774 -1.6889123804323511 1.6737672020331842
C -1.9436575963154767 1.7893289607455927 -2.0410084934574484
C -0.7643555291508641 -1.8769394494768272 -1.1791986146018116
C -0.2941307977567964 2.021427926847459 -0.5805931258210195
C 0.2258644657497837 -1.8441511777393413 1.1182458782295104
C -0.08763205962986786 -0.028446073021397567 1.9887401641186373
C 0.5781150971015268 0.6610735078259351 -1.911605217310302
10
E = -37.53897697490399
C 0 0 0
C -1.8206012846446304 -1.5687503053451772 -0.07155808887487947
C -0.9951859466384434 0.27225288208997656 -1.6614763049437447
C 1.0332578644069574 -1.6557353393146386 1.657199913423141
C 1.6371744293111972 1.4572571258635971 0.46709302683896636
C 1.808006813527801 0.6284535871169266 -1.4205244767786747
C 1.825683256990616 -0.6783763953904915 -0.11439144187795325
C 1.095550448622454 -0.9439328085643639 -2.110027159350931
C -0.3490514489474694 -1.7176281195255463 -1.5517785147111045
C -1.3144607662106025 -1.1767366207238066 2.0516321281019843
10
E = -34.548743103537404
C 0 0 0
C -2.1178356971301437 -0.04571904568066154 0.7216539969064177
C 1.07734112519451 -1.6040740389814232 -1.9575959169916488
C 0.7664753715133408 1.7182583840572812 1.7519063955895784
C -0.8949850551249656 1.8560781537397548 0.3234150298277485
C -0.9722265995707087 -0.5298413257938912 -1.4636267678724224
C 1.5416209854457685 -1.4954585595743883 0.7723997835732259
C -1.5887895875643316 -2.1471752073448416 0.038867055381706095
C -0.7658114387891368 -1.869841325411505 1.7454790821924666
C -1.5472968661475734 1.5458319099320001 2.1511760826918853
10
E = -37.636052921453306
C 0 0 0
C -0.7312837187107386 0.5733681905669981 1.898953141838272
C -1.7824887860699035 -1.3361199854875385 0.22803648209635297
C 1.6901437877070604 0.03385240402437928 -0.6118643416870189
C 0.08282030280733021 -1.988600041320527 0.5017028066645008
C -1.8485524462648368 1.363637278236463 0.5583141005093055
C -2.078053736879616 1.0184171017204977 -1.4513902759374688
C 1.5047550582924636 1.75306868796245 0.34682230528140856
C 0.9880001756320254 -1.8740187943351783 -1.5829578158300581
C -0.28382860385198505 0.29443101213306866 -2.1317074933283995
10
E = -34.02455658605875
C 0 0 0
C 0.3529911674129802 -1.388375530310814 1.8285272077554393
C 0.9432475292729245 2.1440795135236965 0.5158073124789055
C 0.7705153184343811 -1.7493711161009247 -0.4734046740368505
C 0.23950680488690335 -0.7450263061782172 -1.866333721799159
C 1.6787678914481625 0.814036054777044 -1.0235902368838157
C -1.1179329060664152 1.1567174390291668 -0.8544327972992933
C -1.5694791529338303 -1.766543858416545 0.670429247607431
C -1.350077402005439 -1.6984316444035696 -0.9785637337928679
C 1.9170582206244764 0.14330511985286343 0.9596887612763809
