10
E = -20.269961409947033
C 0 0 0
C 2.48820544752481 2.767221424711571 2.342378336615531
C 3.429418035474006 3.7977725726347513 4.068858888265654
C 1.8232420270172773 1.9573441547271477 0.5156592475821177
C 0.2987661622514801 3.907462295440202 3.0075129799450915
C 3.9368177093061645 0.7233196776291986 0.5049799071292268
C 3.4909441638955823 0.019655379260307946 3.6040580449913198
C 2.3744032489508227 0.051063395445764416 1.3896483795295957
C 1.179696940191495 1.8294221724486102 2.928700506538357
C 0.026096199780604436 0.3490190990214503 3.9842753956499224
10
E = -22.242139063863114
C 0 0 0
C 4.121906201385368 2.5715418917284802 4.128580232933481
C 1.0636825689838312 1.739825082603233 0.39928151497837056
C 1.9793311967551583 2.900599350314435 2.9460252671759988
C 0.7001033226196967 0.8497385039033581 3.742765030332994
C 1.8609232065196448 0.12861887846458817 1.0223176106108602
C 3.108618075438402 4.138241075315974 0.9891420888029842
C 0.07720702336328222 4.306475961491207 2.399037599039754
C 3.35729729003422 2.4024123328004716 0.39479225134286655
C 1.5203604201652825 4.106486058521416 4.2569218385333425
10
E = -23.773553079932203
C 0 0 0
C 2.66923229373418 2.1154772902523304 0.18280415099118152
C 2.6372965831803556 2.982006968688339 4.125718422409793
C 1.5188139230108035 2.1922011937451655 2.9396803060554184
C 3.468809502539191 4.184562541127701 0.2922996198295122
C 3.0104921166348144 0.3899794473833101 4.0208471129595145
C 0.2723591541927141 1.9680326096164515 0.003744879880932525
C 4.164068573561282 1.7277810426256162 2.9987573425542964
C 4.172077292401206 0.927095476349941 0.6911072438470812
C 0.4407832521552638 3.8843711833222474 0.3875347269032674
10
E = -22.55482760563029
C 0 0 0
C 1.024237510189132 1.0792068375871482 4.249118271195025
C 3.757511353529095 0.809520307778152 2.390491115043615
C 1.9986329280467148 4.220081030087601 2.1232063723461874
C 3.799998661453962 2.6486961081232976 2.0407394576584257
C 3.8062701298544033 2.9855867454828298 0.21238739016208702
C 3.2045267906161756 2.364573936109291 4.220084789195411
C 2.1479303743961293 0.12902753516730217 1.253219205529384
C 0.10240026869896675 2.586844789752585 3.3082425411570076
C 0.6278653789965589 0.16738299531326217 2.8031877967395675
10
E = -22.169202302016423
C 0 0 0
C 1.7424937103344467 0.5105168179372543 1.3028192346662681
C 4.03775754165832 3.4005409186882014 3.9091365225213734
C 0.023822377917631043 4.0265505073248775 2.5041994855469696
C 1.4700436233116398 4.119329661585387 3.738914250584374
C 1.677885015864612 1.934192559382347 2.318059555398118
C 3.6991783220066203 4.06697775847961 1.8949078092583742
C 0.467486293889034 3.935957646073353 0.6646818117377901
C 1.86198921792961 0.23462632621966312 3.6023267789252875
C 3.900496250622209 1.2141099338888184 2.4630380929718587
10
E = -20.17408267868881
C 0 0 0
C 2.637551765356052 2.602803015377984 0.24135575164192433
C 3.803395309661653 3.904772541494506 2.1367596623970493
C 1.753639677515708 4.068427396873255 3.4137591744020614
C 1.2121411794773091 1.3389278786029115 1.6940927670695833
C 3.4657582473248687 0.8931407387908255 0.798524354062741
C 0.518082226511042 3.198177509860991 0.4392029448957152
C 4.041594576790422 0.01615078961602424 4.21994637744417
C 0.5672697201107942 1.3676413506545784 3.505320446319526
C 1.7960203761175781 4.254182129693796 0.8930838439743495
10
E = -28.593524149548102
C 0 0 0
C 2.7286676194271458 0.1672028067310074 1.4840824326593791
C 3.6610943039721153 4.225648336266364 4.305484521252556
C 1.1890443866478762 2.00308323927899 2.7190827332299703
C 2.881661046283788 2.060715255870938 0.3431909873941178
C 1.8526363655884477 0.10915044587252165 3.7153313585213152
C 3.6960255606541805 0.5383387510190901 3.072853467347513
C 3.3217473335532364 2.571362042911971 3.5089712125919834
C 0.16059340364690167 3.8816459481703234 1.1301357770647458
C 1.8191768591775934 3.63163732371495 1.9836275799951537
10
E = -23.645709959362357
C 0 0 0
C 1.5431774772581988 1.7333731622859943 3.5171251098682257
C 0.4888607696317944 3.878886847229633 2.45704715803595
C 1.6546298638096966 3.828225102635251 0.9587234441470853
C 0.2483994082532526 0.5091382111014091 3.4584236024234913
C 4.097038717249447 0.9133936822909335 3.902142646017365
C 3.9963812440892568 3.089002495210321 3.3882178698662213
C 0.11258949065979258 2.4616635362985817 1.0717702520494305
C 3.6972332803551837 0.0435880796186364 0.6025899591916896
C 2.3284293640027993 3.8722348483712614 2.8450700747289868
10
E = -25.296032683195698
C 0 0 0
C 1.3176451224694345 1.5097573264293513 0.4968995663722055
C 0.4273226239678323 1.0806796026062337 3.929043591701019
C 3.5511781520210723 3.3369471074473025 3.316035489800895
C 3.533232677288926 3.0919656803150573 0.10234991564310797
C 1.3141165457110997 3.410950900720154 3.2730068342113254
C 2.7411486272739256 1.3707779266040496 2.355360005399637
C 2.6793126078394414 0.31581041002992205 3.900497168882054
C 3.2252435069858194 0.08025394232366043 0.529889826824599
C 4.29846254751032 1.12819468672292 3.204506672028717
10
E = -26.049440657590253
C 0 0 0
C 0.7069900307302991 3.272486839585003 2.102351131628118
C 0.587540147388307 3.3970995401273294 3.946192406786042
C 2.587320299619312 3.6810971671291703 0.31234050105062783
C 3.320025396831304 1.8500864980614375 0.4451363073931522
C 4.23790578492259 2.6556212788696176 4.303588981892057
C 2.318879056465 0.17193676707739905 1.409047384714911
C 3.083452362706954 2.932385005192198 2.4643127926231116
C 1.9728344399744864 1.7649432392849895 4.086905116146522
C 1.9570308992318464 2.046314214737635 1.455655900761309
